Version 4
SHEET 1 924 680
WIRE 560 -176 560 -240
WIRE 560 80 560 -96
WIRE 128 128 -112 128
WIRE 208 128 128 128
WIRE 400 128 288 128
WIRE 496 128 400 128
WIRE -112 144 -112 128
WIRE 400 176 400 128
WIRE 560 224 560 176
WIRE 560 304 560 288
WIRE -112 320 -112 224
WIRE 400 336 400 256
WIRE 560 336 560 304
WIRE 560 448 560 416
FLAG 400 336 0
FLAG 560 448 0
FLAG -112 320 0
FLAG 560 -240 0
FLAG 560 304 E
FLAG 128 128 Vin
SYMBOL voltage -112 128 R0
WINDOW 123 0 0 Left 2
WINDOW 39 0 0 Left 2
SYMATTR InstName V1
SYMATTR Value PULSE(0 3.3 5 2 2 20 30 20)
SYMBOL res 304 112 R90
WINDOW 0 0 56 VBottom 2
WINDOW 3 32 56 VTop 2
SYMATTR InstName R1
SYMATTR Value 3.48k
SYMBOL res 416 272 R180
WINDOW 0 36 76 Left 2
WINDOW 3 36 40 Left 2
SYMATTR InstName R2
SYMATTR Value 3.296k
SYMBOL voltage 560 -80 R180
WINDOW 0 24 96 Left 2
WINDOW 3 24 16 Left 2
WINDOW 123 0 0 Left 2
WINDOW 39 24 68 Left 2
SYMATTR InstName V2
SYMATTR Value 5
SYMATTR SpiceLine Rser=0
SYMBOL res 544 320 R0
SYMATTR InstName R3
SYMATTR Value 111
SYMBOL LED 544 224 R0
SYMATTR InstName D1
SYMATTR Value QTLP690C
SYMBOL pnp 496 80 R0
SYMATTR InstName Q2
SYMATTR Value BC857B
TEXT -144 344 Left 2 !.tran 30
